Version 4.1
SHEET 1 1796 680
WIRE 128 -128 -64 -128
WIRE 448 -128 208 -128
WIRE 688 -48 528 -48
WIRE 944 -48 768 -48
WIRE 304 16 176 16
WIRE 512 16 384 16
WIRE 176 80 176 16
WIRE 176 80 96 80
WIRE 272 80 176 80
WIRE -64 160 -64 -128
WIRE 16 160 16 80
WIRE 16 160 -64 160
WIRE 352 160 352 80
WIRE 448 160 448 -128
WIRE 448 160 352 160
WIRE 512 160 512 16
WIRE 528 160 528 -48
WIRE 528 160 512 160
WIRE 528 176 528 160
WIRE 608 176 528 176
WIRE 944 192 944 -48
WIRE 944 192 672 192
WIRE 608 208 528 208
WIRE 16 240 16 160
WIRE 176 240 176 80
WIRE 176 240 96 240
WIRE 272 240 176 240
WIRE 352 240 352 160
WIRE 176 320 176 240
WIRE 320 320 176 320
WIRE 528 320 528 208
WIRE 528 320 400 320
FLAG -224 528 0
FLAG -96 528 0
FLAG -224 448 +12
FLAG -96 448 -12
FLAG 640 160 +12
FLAG 640 224 -12
SYMBOL res 0 96 R270
WINDOW 0 32 56 VTop 2
WINDOW 3 0 56 VBottom 2
SYMATTR InstName R1
SYMATTR Value {R}
SYMBOL res 256 96 R270
WINDOW 0 32 56 VTop 2
WINDOW 3 0 56 VBottom 2
SYMATTR InstName R3
SYMATTR Value 2.2K
SYMBOL res 0 256 R270
WINDOW 0 32 56 VTop 2
WINDOW 3 0 56 VBottom 2
SYMATTR InstName R2
SYMATTR Value 2.2k
SYMBOL res 256 256 R270
WINDOW 0 32 56 VTop 2
WINDOW 3 0 56 VBottom 2
SYMATTR InstName R4
SYMATTR Value 2.2K
SYMBOL voltage 224 -128 R90
WINDOW 0 -32 56 VBottom 2
WINDOW 3 32 56 VTop 2
WINDOW 123 0 0 Left 0
WINDOW 39 0 0 Left 0
SYMATTR InstName V1
SYMATTR Value 5
SYMBOL voltage -224 432 R0
WINDOW 123 0 0 Left 0
WINDOW 39 0 0 Left 0
SYMATTR InstName V2
SYMATTR Value +12
SYMBOL voltage -96 432 R0
WINDOW 123 0 0 Left 0
WINDOW 39 0 0 Left 0
SYMATTR InstName V3
SYMATTR Value -12
SYMBOL OpAmps\\OP07 640 128 R0
SYMATTR InstName U1
SYMBOL res 784 -64 R90
WINDOW 0 0 56 VBottom 2
WINDOW 3 32 56 VTop 2
SYMATTR InstName R5
SYMATTR Value 100k
SYMBOL res 400 0 R90
WINDOW 0 0 56 VBottom 2
WINDOW 3 32 56 VTop 2
SYMATTR InstName R6
SYMATTR Value 10k
SYMBOL res 416 304 R90
WINDOW 0 0 56 VBottom 2
WINDOW 3 32 56 VTop 2
SYMATTR InstName R7
SYMATTR Value 10k
TEXT -256 552 Left 2 ;.step param R 2 5 0.2
TEXT 192 456 Left 2 !.step param R list 2k 2.5k 3k
TEXT -256 576 Left 2 !.tran 1
