Version 4.1
SHEET 1 880 680
WIRE 176 -144 160 -144
WIRE 288 -144 256 -144
WIRE 384 -144 368 -144
WIRE 160 -16 160 -144
WIRE 240 -16 160 -16
WIRE 384 -16 384 -144
WIRE 384 -16 304 -16
WIRE 48 64 16 64
WIRE 16 144 16 64
WIRE 16 144 -48 144
WIRE 112 144 112 64
WIRE 112 144 96 144
WIRE 160 144 160 -16
WIRE 160 144 112 144
WIRE 192 144 160 144
WIRE 384 160 384 -16
WIRE 384 160 256 160
WIRE 192 176 48 176
WIRE 48 208 48 176
FLAG -256 224 +12
FLAG 224 128 +12
FLAG -144 224 -12
FLAG 224 192 -12
FLAG -256 304 0
FLAG -144 304 0
FLAG 48 288 0
FLAG -48 144 0
SYMBOL OpAmps\\OP07 224 96 R0
SYMATTR InstName U1
SYMBOL voltage -256 208 R0
WINDOW 123 0 0 Left 0
WINDOW 39 0 0 Left 0
SYMATTR InstName V1
SYMATTR Value 12
SYMBOL voltage -144 208 R0
WINDOW 123 0 0 Left 0
WINDOW 39 0 0 Left 0
SYMATTR InstName V2
SYMATTR Value -12
SYMBOL Misc\\signal 48 192 R0
WINDOW 123 24 132 Left 2
WINDOW 39 0 0 Left 0
SYMATTR InstName V3
SYMATTR Value SINE(0 1 5000 0)
SYMATTR Value2 AC 1
SYMBOL cap 304 -32 R90
WINDOW 0 0 32 VBottom 2
WINDOW 3 32 32 VTop 2
SYMATTR InstName Cf
SYMATTR Value 100n
SYMBOL cap 112 48 R90
WINDOW 0 0 32 VBottom 2
WINDOW 3 32 32 VTop 2
SYMATTR InstName Cg
SYMATTR Value 100n
SYMBOL res 112 128 R90
WINDOW 0 0 56 VBottom 2
WINDOW 3 32 56 VTop 2
SYMATTR InstName Rg
SYMATTR Value 1k
SYMBOL res 384 -160 R90
WINDOW 0 0 56 VBottom 2
WINDOW 3 32 56 VTop 2
SYMATTR InstName Rf
SYMATTR Value 50
SYMBOL ind 272 -160 R90
WINDOW 0 5 56 VBottom 2
WINDOW 3 32 56 VTop 2
SYMATTR InstName Lg
SYMATTR Value 10m
TEXT -288 344 Left 2 !.ac oct 50 10 10MEG
