Version 4
SHEET 1 880 680
WIRE 144 -96 -224 -96
WIRE -224 -64 -224 -96
WIRE 144 -32 144 -96
WIRE 144 -32 16 -32
WIRE 224 -32 144 -32
WIRE 16 0 16 -32
WIRE 224 0 224 -32
WIRE 112 80 64 80
WIRE 176 80 112 80
WIRE 16 144 16 96
WIRE 16 144 -96 144
WIRE 224 144 224 96
WIRE 352 144 224 144
WIRE 16 192 16 144
WIRE 224 192 224 144
WIRE 144 208 144 -32
WIRE 144 208 64 208
WIRE 176 208 144 208
WIRE 352 240 352 144
WIRE 368 240 352 240
WIRE 544 288 496 288
WIRE -464 320 -464 272
WIRE -368 320 -368 272
WIRE 16 320 16 288
WIRE 112 320 112 80
WIRE 112 320 16 320
WIRE 224 320 224 288
WIRE 224 320 112 320
WIRE 112 336 112 320
WIRE 368 336 352 336
WIRE -96 400 -96 144
WIRE 352 400 352 336
WIRE 352 400 -96 400
FLAG -224 16 0
FLAG 112 336 0
FLAG 464 352 0
FLAG -464 400 0
FLAG -368 400 0
FLAG -464 272 +12
FLAG -368 272 -12
FLAG 400 352 -12
FLAG 432 224 +12
SYMBOL Misc\\signal -224 -80 R0
WINDOW 3 -74 136 Left 2
WINDOW 123 0 0 Left 0
WINDOW 39 0 0 Left 0
SYMATTR Value SINE(0 5 1K)
SYMATTR InstName V1
SYMBOL OpAmps\\LT1168 432 288 R0
SYMATTR InstName U1
SYMBOL voltage -368 304 R0
WINDOW 123 0 0 Left 0
WINDOW 39 0 0 Left 0
SYMATTR InstName V2
SYMATTR Value -12
SYMBOL voltage -464 304 R0
WINDOW 123 0 0 Left 0
WINDOW 39 0 0 Left 0
SYMATTR InstName V3
SYMATTR Value +12
SYMBOL nmos 64 288 R180
SYMATTR InstName M1
SYMBOL nmos 64 0 M0
SYMATTR InstName M2
SYMBOL pmos 176 0 R0
SYMATTR InstName M3
SYMBOL pmos 176 288 M180
SYMATTR InstName M4
TEXT 136 432 Left 2 !.tran .01
